LVTestCase/LineCode.txt
New LineCode.2c_.007 nphases=3 R1=3.97 X1=0.099 R0=3.97 X0=0.099 C1=0 C0=0 Units=km normamps=53.0 ! 4_CU_CONCENTRIC_1C
New LineCode.2c_.0225 nphases=3 R1=1.257 X1=0.085 R0=1.257 X0=0.085 C1=0 C0=0 Units=km normamps=120.0 ! 0.0225_CU_PILC_2C
New LineCode.2c_16 nphases=3 R1=1.15 X1=0.088 R0=1.2 X0=0.088 C1=0 C0=0 Units=km normamps=100.0 ! Formula
New LineCode.35_SAC_XSC nphases=3 R1=0.868 X1=0.092 R0=0.76 X0=0.092 C1=0 C0=0 Units=km normamps=96.0 ! 35_AL_CONCENTRIC_3C
New LineCode.4c_.06 nphases=3 R1=0.469 X1=0.075 R0=1.581 X0=0.091 C1=0 C0=0 Units=km normamps=175.0 ! 0.06_CU_PILC_4C
New LineCode.4c_.1 nphases=3 R1=0.274 X1=0.073 R0=0.959 X0=0.079 C1=0 C0=0 Units=km normamps=240.0 ! 0.1_CU_PILC_4C
New LineCode.4c_.35 nphases=3 R1=0.089 X1=0.0675 R0=0.319 X0=0.076 C1=0 C0=0 Units=km normamps=445.0 ! 0.3_CU_PILC_4C
New LineCode.4c_185 nphases=3 R1=0.166 X1=0.068 R0=0.58 X0=0.078 C1=0 C0=0 Units=km normamps=425.0 ! 185_CU_PILC_4C
New LineCode.4c_70 nphases=3 R1=0.446 X1=0.071 R0=1.505 X0=0.083 C1=0 C0=0 Units=km normamps=256.0 ! SSE_TEST_CABLE e.g. 95_AL_DISTRICABLE_3C
New LineCode.4c_95_SAC_XC nphases=3 R1=0.322 X1=0.074 R0=0.804 X0=0.093 C1=0 C0=0 Units=km normamps=225.0 ! 95_AL_PILC_4C
